-- Copyright (C) 2023 NORCE
-- This deck was generated by pyopmspe11 https://github.com/OPM/pyopmspe11
----------------------------------------------------------------------------
RUNSPEC
----------------------------------------------------------------------------
DIMENS 
102 1 112 /

EQLDIMS
/

TABDIMS
7 1* 1000 /

WATER
GAS
CO2STORE
DISGASW
VAPWAT
DIFFUSE
THERMAL

METRIC

START
1 'JAN' 2025 /


UNIFIN
UNIFOUT
----------------------------------------------------------------------------
GRID
----------------------------------------------------------------------------
INIT
INCLUDE
'GRID.INC' /

INCLUDE
'PERMX.INC' /

COPY 
PERMX PERMY /
PERMX PERMZ /
/

MULTIPLY
PERMZ 0.1 /
/

INCLUDE
'PORO.INC' /

INCLUDE
'THCONR.INC' /

BCCON 
1 1 102 1 1 1 1 Z-/
2 1 102 1 1 112 112 Z/
/

INCLUDE
'DISPERC.INC' /
----------------------------------------------------------------------------
EDIT
----------------------------------------------------------------------------
INCLUDE
'PVBOUNDARIES.INC' /
----------------------------------------------------------------------------
PROPS
----------------------------------------------------------------------------
INCLUDE
'TABLES.INC' /

DIFFAWAT
8.64e-05 8.64e-05 /

DIFFAGAS
0.001728 0.001728 /

SPECROCK
40.0 2125.0
70.0 2125.0 /
40.0 2125.0
70.0 2125.0 /
40.0 2125.0
70.0 2125.0 /
40.0 2125.0
70.0 2125.0 /
40.0 2125.0
70.0 2125.0 /
40.0 2125.0
70.0 2125.0 /
40.0 2125.0
70.0 2125.0 /

THCO2MIX
NONE NONE NONE /
----------------------------------------------------------------------------
REGIONS
----------------------------------------------------------------------------
INCLUDE
'SATNUM.INC' /
INCLUDE
'FIPNUM.INC' /
----------------------------------------------------------------------------
SOLUTION
---------------------------------------------------------------------------
EQUIL
900.0 300.0 0 0 0 0 1 1 0 /

RPTRST
'BASIC=2' DEN PCGW/


RTEMPVD
0   40.0
1200.0 70.0 /
----------------------------------------------------------------------------
SUMMARY
----------------------------------------------------------------------------
PERFORMA
FGIP
FGIR
FGIT
RGKDI
/
RGKDM
/
RGIP
/
RWCD
/
WBHP
/
WGIR
/
WGIT
/
BWPR
55 1 81 /
62 1 4 /
/
----------------------------------------------------------------------------
SCHEDULE
----------------------------------------------------------------------------
RPTRST
'BASIC=2' DEN RESIDUAL PCGW/

BCPROP
1 THERMAL /
2 THERMAL /
/


TUNING
1e-2 365.0 1e-10 2* 1e-12/
/
/
SOURCE
34 1 93 GAS 0.000000E+00 1* 1.000000E+01 /
62 1 60 GAS 0.000000E+00 1* 1.000000E+01 /
/
TSTEP
1*364963.5
/
TUNING
1e-2 36.5 1e-10 2* 1e-12/
/
/
SOURCE
34 1 93 GAS 0.000000E+00 1* 1.000000E+01 /
62 1 60 GAS 0.000000E+00 1* 1.000000E+01 /
/
TSTEP
1*36.5
/
TUNING
1e-2 3.65 1e-10 2* 1e-12/
/
/
SOURCE
34 1 93 GAS 3.024000E+03 1* 1.000000E+01 /
62 1 60 GAS 0.000000E+00 1* 1.000000E+01 /
/
TSTEP
5*1825.0
/
TUNING
1e-2 3.65 1e-10 2* 1e-12/
/
/
SOURCE
34 1 93 GAS 3.024000E+03 1* 1.000000E+01 /
62 1 60 GAS 3.024000E+03 1* 1.000000E+01 /
/
TSTEP
5*1825.0
/
TUNING
1e-2 36.5 1e-10 2* 1e-12/
/
/
SOURCE
34 1 93 GAS 0.000000E+00 1* 1.000000E+01 /
62 1 60 GAS 0.000000E+00 1* 1.000000E+01 /
/
TSTEP
190*1825.0
/
