-- This reservoir simulation deck is made available under the Open Database
-- License: http://opendatacommons.org/licenses/odbl/1.0/. Any rights in
-- individual contents of the database are licensed under the Database Contents
-- License: http://opendatacommons.org/licenses/dbcl/1.0/
-- Copyright (C) 2026 NORCE Research AS
----------------------------------------------------------------------------
RUNSPEC
----------------------------------------------------------------------------
DIMENS
3 3 3 /
EQLDIMS
/
OIL
GAS
WATER
EQLDIMS
/
WELLDIMS
3 3 3 3 /
TABDIMS
6 /
SATOPTS
HYSTER  /
UNIFOUT
----------------------------------------------------------------------------
GRID
----------------------------------------------------------------------------
INIT
DX
27*1 /
DY
27*1 /
DZ
27*1 /
TOPS
9*1 /
PORO
27*1/
PERMX
27*10.13/
COPY
PERMX PERMY/
PERMX PERMZ/
/
FAULTS
FAULT13 1 3 2 2 1 3 'Y' /
FAULT42 2 2 1 3 1 3 'X' /
/
----------------------------------------------------------------------------
PROPS
----------------------------------------------------------------------------
SGOF
0.0 0.0 1.0 5
0.5 0.3 0.3 2
1.0 1.0 0.0 0
/
/
/
0.2 0.0 1.0 1.5
0.6 0.2 0.4 0.5
1.0 1.0 0.0 0.0
/
/
/
SWOF
0.0 0.0 1.0 5
0.5 0.3 0.3 2
1.0 1.0 0.0 0
/
/
/
0.4 0.0 1.0 1.5
0.7 0.2 0.4 0.5
1.0 1.0 0.0 0.0
/
/
/
PVTW
100 1.02 4.0E-5 0.50 /
DENSITY
800 1000 2 /
PVDG
100 0.0108 0.013
300 0.0041 0.017
/
PVDO
100 1.25  3.0
300 1.10  4.5
/
EHYSTR
0.1 0 2* BOTH /
----------------------------------------------------------------------------
REGIONS
----------------------------------------------------------------------------
SATNUM
9*1
9*2
9*3 /
FIPNUM
9*1
9*2
9*3 /
IMBNUM
9*4
9*5
9*6 /
----------------------------------------------------------------------------
SOLUTION
----------------------------------------------------------------------------
RPTRST
BASIC=2/
EQUIL
0 200 10 0 9 0 1 1 0 /
----------------------------------------------------------------------------
SUMMARY
----------------------------------------------------------------------------
PERFORMA
BWPR
2 2 2 /
/
----------------------------------------------------------------------------
SCHEDULE
----------------------------------------------------------------------------
RPTRST
BASIC=2/
WELSPECS
INJ G1 1 1 1* GAS /
PRO G1 1 1 1* WAT /
/
COMPDAT
INJ 1 1 1 3 SHUT 2* 1* /
PRO 3 3 1 3 SHUT 2* 1* /
/
SOURCE
2 2 2 GAS 0 1* 0 /
2 3 2 GAS 0 1* 0 /
/
TSTEP
2*1 /
